Circuit: * D:\FPGA\Half Adder\Draft1.asc

WARNING: Less than two connections to node SUM_A_XNOR_B_XNOR_CIN.  This node is used by A3.
WARNING: Less than two connections to node CARRY.  This node is used by A5.
Direct Newton iteration for .op point succeeded.

Date: Tue Jun 20 11:43:55 2023
Total elapsed time: 3.700 seconds.

tnom = 27
temp = 27
method = modified trap
totiter = 3197
traniter = 3194
tranpoints = 1576
accept = 1566
rejected = 10
matrix size = 11
fillins = 0
solver = Normal
Matrix Compiler1: 198 bytes object code size  0.1/0.0/[0.0]
Matrix Compiler2: 475 bytes object code size  0.1/0.1/[0.0]

