Circuit: * D:\FPGA\Half Adder\Half_Adder.asc

WARNING: Less than two connections to node CARRY.  This node is used by A1.
WARNING: Less than two connections to node SUM.  This node is used by A2.
Direct Newton iteration for .op point succeeded.

Date: Tue Jun 20 17:22:53 2023
Total elapsed time: 0.192 seconds.

tnom = 27
temp = 27
method = modified trap
totiter = 2611
traniter = 2608
tranpoints = 1300
accept = 1294
rejected = 6
matrix size = 6
fillins = 0
solver = Normal
Matrix Compiler1:       7 opcodes  0.0/[0.0]/0.0
Matrix Compiler2: off  [0.0]/0.0/0.0

